!-Generator IDFEditor 1.51
!-Option OriginalOrderTop UseSpecialFormat

!-NOTE: All comments with '!-' are ignored by the IDFEditor and are generated automatically.
!-      Use '!' comments if they need to be retained when using the IDFEditor.

FuelFactors,
    Electricity,             !- Existing Fuel Resource Name
    ,                        !- Units of Measure
    ,                        !- Energy per Unit Factor
    2.7;                     !- Source Energy Factor {J/J}

