!-Generator IDFEditor 1.51
!-Option OriginalOrderTop UseSpecialFormat

!-NOTE: All comments with '!-' are ignored by the IDFEditor and are generated automatically.
!-      Use '!' comments if they need to be retained when using the IDFEditor.

!  Thermochromic Window Construction
Construction,
    TCwindow,                !- Name
    Clear3PPG,               !- Outside Layer
    AIR 3MM,                 !- Layer 2
    TCGlazings,              !- Layer 3
    AIR 8MM,                 !- Layer 4
    SB60Clear3PPG;           !- Layer 5

WindowMaterial:GlazingGroup:Thermochromic,
    TCGlazings,              !- Name
    25,                      !- Optical Data Temperature 1 {C}
    WO18RT25,                !- Window Material Glazing Name 1
    27,                      !- Optical Data Temperature 2 {C}
    WO18RT27,                !- Window Material Glazing Name 2
    29,                      !- Optical Data Temperature 3 {C}
    WO18RT29,                !- Window Material Glazing Name 3
    31,                      !- Optical Data Temperature 4 {C}
    WO18RT31,                !- Window Material Glazing Name 4
    33,                      !- Optical Data Temperature 5 {C}
    WO18RT33,                !- Window Material Glazing Name 5
    35,                      !- Optical Data Temperature 6 {C}
    WO18RT35,                !- Window Material Glazing Name 6
    37,                      !- Optical Data Temperature 7 {C}
    WO18RT37,                !- Window Material Glazing Name 7
    39,                      !- Optical Data Temperature 8 {C}
    WO18RT39,                !- Window Material Glazing Name 8
    41,                      !- Optical Data Temperature 9 {C}
    WO18RT41,                !- Window Material Glazing Name 9
    43,                      !- Optical Data Temperature 10 {C}
    WO18RT43,                !- Window Material Glazing Name 10
    45,                      !- Optical Data Temperature 11 {C}
    WO18RT45,                !- Window Material Glazing Name 11
    50,                      !- Optical Data Temperature 12 {C}
    WO18RT50,                !- Window Material Glazing Name 12
    55,                      !- Optical Data Temperature 13 {C}
    WO18RT55,                !- Window Material Glazing Name 13
    60,                      !- Optical Data Temperature 14 {C}
    WO18RT60,                !- Window Material Glazing Name 14
    65,                      !- Optical Data Temperature 15 {C}
    WO18RT65,                !- Window Material Glazing Name 15
    70,                      !- Optical Data Temperature 16 {C}
    WO18RT70,                !- Window Material Glazing Name 16
    75,                      !- Optical Data Temperature 17 {C}
    WO18RT75,                !- Window Material Glazing Name 17
    80,                      !- Optical Data Temperature 18 {C}
    WO18RT80,                !- Window Material Glazing Name 18
    85,                      !- Optical Data Temperature 19 {C}
    WO18RT85;                !- Window Material Glazing Name 19

WindowMaterial:Gas,
    AIR 3MM,                 !- Name
    Air,                     !- Gas Type
    0.003;                   !- Thickness {m}

WindowMaterial:Gas,
    AIR 8MM,                 !- Name
    Air,                     !- Gas Type
    0.008;                   !- Thickness {m}

WindowMaterial:Glazing,
    SB60Clear3PPG,           !- Name
    Spectral,                !- Optical Data Type
    SB60Clear3PPGSP,         !- Window Glass Spectral Data Set Name
    0.003276,                !- Thickness {m}
    ,                        !- Solar Transmittance at Normal Incidence
    ,                        !- Front Side Solar Reflectance at Normal Incidence
    ,                        !- Back Side Solar Reflectance at Normal Incidence
    ,                        !- Visible Transmittance at Normal Incidence
    ,                        !- Front Side Visible Reflectance at Normal Incidence
    ,                        !- Back Side Visible Reflectance at Normal Incidence
    0,                       !- Infrared Transmittance at Normal Incidence
    0.035,                   !- Front Side Infrared Hemispherical Emissivity
    0.84,                    !- Back Side Infrared Hemispherical Emissivity
    1.0,                     !- Conductivity {W/m-K}
    1.0,                     !- Dirt Correction Factor for Solar and Visible Transmittance
    No;                      !- Solar Diffusing

WindowMaterial:Glazing,
    Clear3PPG,               !- Name
    Spectral,                !- Optical Data Type
    Clear3PPGSP,             !- Window Glass Spectral Data Set Name
    0.003276,                !- Thickness {m}
    ,                        !- Solar Transmittance at Normal Incidence
    ,                        !- Front Side Solar Reflectance at Normal Incidence
    ,                        !- Back Side Solar Reflectance at Normal Incidence
    ,                        !- Visible Transmittance at Normal Incidence
    ,                        !- Front Side Visible Reflectance at Normal Incidence
    ,                        !- Back Side Visible Reflectance at Normal Incidence
    0,                       !- Infrared Transmittance at Normal Incidence
    0.84,                    !- Front Side Infrared Hemispherical Emissivity
    0.84,                    !- Back Side Infrared Hemispherical Emissivity
    1.0,                     !- Conductivity {W/m-K}
    1.0,                     !- Dirt Correction Factor for Solar and Visible Transmittance
    No;                      !- Solar Diffusing

MaterialProperty:GlazingSpectralData,
    SB60Clear3PPGSP,                                                 !- Name
    0.3, 0, 0.0511, 0.25,                                            !- Back Reflectance 1
    0.305, 0, 0.0506, 0.257,                                         !- Back Reflectance 2
    0.31, 0.001, 0.0506, 0.27,                                       !- Back Reflectance 3
    0.315, 0.004, 0.0506, 0.2829,                                    !- Back Reflectance 4
    0.32, 0.013, 0.0522, 0.2929,                                     !- Back Reflectance 5
    0.325, 0.029, 0.0583, 0.3015,                                    !- N24
    0.33, 0.053, 0.0674, 0.3063,                                     !- N28
    0.335, 0.082, 0.0811, 0.3041,                                    !- N32
    0.34, 0.115, 0.0967, 0.2962,                                     !- N36
    0.345, 0.151, 0.1117, 0.2846,                                    !- N40
    0.35, 0.189, 0.1243, 0.2696,                                     !- N44
    0.355, 0.23, 0.1342, 0.2517,                                     !- N48
    0.36, 0.273, 0.1415, 0.2316,                                     !- N52
    0.365, 0.318, 0.1466, 0.2101,                                    !- N56
    0.37, 0.364, 0.1485, 0.1883,                                     !- N60
    0.375, 0.409, 0.1471, 0.1669,                                    !- N64
    0.38, 0.455, 0.1448, 0.1461,                                     !- N68
    0.385, 0.506, 0.1433, 0.1269,                                    !- N72
    0.39, 0.557, 0.1411, 0.1103,                                     !- N76
    0.395, 0.603, 0.1367, 0.0958,                                    !- N80
    0.4, 0.642, 0.1304, 0.0831,                                      !- N84
    0.41, 0.701, 0.1147, 0.063,                                      !- N88
    0.42, 0.739, 0.0988, 0.0497,                                     !- N92
    0.43, 0.762, 0.0853, 0.0412,                                     !- N96
    0.44, 0.774, 0.0747, 0.0366,                                     !- N100
    0.45, 0.781, 0.0674, 0.0349,                                     !- N104
    0.46, 0.787, 0.0621, 0.0354,                                     !- N108
    0.47, 0.791, 0.0588, 0.0376,                                     !- N112
    0.48, 0.795, 0.0575, 0.0408,                                     !- N116
    0.49, 0.799, 0.0575, 0.0446,                                     !- N120
    0.5, 0.803, 0.0585, 0.0483,                                      !- N124
    0.51, 0.806, 0.0603, 0.0517,                                     !- N128
    0.52, 0.808, 0.0622, 0.0545,                                     !- N132
    0.53, 0.809, 0.0637, 0.0565,                                     !- N136
    0.54, 0.809, 0.0642, 0.0568,                                     !- N140
    0.55, 0.808, 0.0639, 0.0562,                                     !- N144
    0.56, 0.807, 0.0623, 0.0541,                                     !- N148
    0.57, 0.805, 0.0598, 0.0512,                                     !- N152
    0.58, 0.803, 0.0566, 0.0478,                                     !- N156
    0.59, 0.8, 0.0532, 0.0442,                                       !- N160
    0.6, 0.796, 0.05, 0.0408,                                        !- N164
    0.61, 0.79, 0.0474, 0.0385,                                      !- N168
    0.62, 0.781, 0.0461, 0.0381,                                     !- N172
    0.63, 0.771, 0.0468, 0.0399,                                     !- N176
    0.64, 0.758, 0.0497, 0.0447,                                     !- N180
    0.65, 0.743, 0.0558, 0.0532,                                     !- N184
    0.66, 0.723, 0.0644, 0.0654,                                     !- N188
    0.67, 0.701, 0.0767, 0.0819,                                     !- N192
    0.68, 0.675, 0.092, 0.1029,                                      !- N196
    0.69, 0.646, 0.1107, 0.1278,                                     !- N200
    0.7, 0.616, 0.1313, 0.1564,                                      !- N204
    0.71, 0.583, 0.1545, 0.1883,                                     !- N208
    0.72, 0.55, 0.1787, 0.223,                                       !- N212
    0.73, 0.516, 0.2049, 0.2586,                                     !- N216
    0.74, 0.482, 0.2308, 0.2963,                                     !- N220
    0.75, 0.448, 0.2558, 0.3333,                                     !- N224
    0.76, 0.416, 0.2809, 0.3712,                                     !- N228
    0.77, 0.385, 0.3044, 0.4075,                                     !- N232
    0.78, 0.355, 0.3267, 0.4425,                                     !- N236
    0.79, 0.328, 0.3476, 0.4774,                                     !- N240
    0.8, 0.302, 0.368, 0.5104,                                       !- N244
    0.81, 0.279, 0.3861, 0.541,                                      !- N248
    0.82, 0.257, 0.4033, 0.5692,                                     !- N252
    0.83, 0.237, 0.4166, 0.5954,                                     !- N256
    0.84, 0.219, 0.4301, 0.6208,                                     !- N260
    0.85, 0.202, 0.4446, 0.6414,                                     !- N264
    0.86, 0.187, 0.4588, 0.6673,                                     !- N268
    0.87, 0.173, 0.468, 0.6868,                                      !- N272
    0.88, 0.161, 0.4744, 0.7023,                                     !- N276
    0.89, 0.149, 0.4825, 0.7192,                                     !- N280
    0.9, 0.139, 0.4907, 0.7346,                                      !- N284
    0.91, 0.129, 0.497, 0.7488,                                      !- N288
    0.92, 0.121, 0.5041, 0.7618,                                     !- N292
    0.93, 0.113, 0.5098, 0.7733,                                     !- N296
    0.94, 0.106, 0.5149, 0.7847,                                     !- N300
    0.95, 0.1, 0.5201, 0.7949,                                       !- N304
    0.96, 0.093, 0.5245, 0.8046,                                     !- N308
    0.97, 0.086, 0.5281, 0.8135,                                     !- N312
    0.98, 0.081, 0.5323, 0.8218,                                     !- N316
    0.99, 0.076, 0.5364, 0.8292,                                     !- N320
    1, 0.072, 0.5402, 0.8365,                                        !- N324
    1.05, 0.055, 0.5564, 0.8654,                                     !- N328
    1.1, 0.043, 0.5703, 0.8865,                                      !- N332
    1.15, 0.034, 0.5821, 0.9019,                                     !- N336
    1.2, 0.028, 0.5959, 0.9154,                                      !- N340
    1.25, 0.023, 0.6096, 0.9245,                                     !- N344
    1.3, 0.02, 0.6252, 0.9312,                                       !- N348
    1.35, 0.016, 0.6433, 0.9372,                                     !- N352
    1.4, 0.014, 0.6624, 0.9426,                                      !- N356
    1.45, 0.012, 0.6861, 0.9473,                                     !- N360
    1.5, 0.011, 0.7091, 0.9494,                                      !- N364
    1.55, 0.011, 0.729, 0.9522,                                      !- N368
    1.6, 0.01, 0.7431, 0.9537,                                       !- N372
    1.65, 0.009, 0.754, 0.9566,                                      !- N376
    1.7, 0.01, 0.758, 0.9566,                                        !- N380
    1.75, 0.008, 0.7591, 0.9576,                                     !- N384
    1.8, 0.008, 0.7588, 0.9595,                                      !- N388
    1.85, 0.007, 0.7574, 0.9607,                                     !- N392
    1.9, 0.007, 0.7558, 0.9603,                                      !- N396
    1.95, 0.007, 0.7609, 0.9627,                                     !- N400
    2, 0.003, 0.7563, 0.9638,                                        !- N404
    2.05, 0.004, 0.7567, 0.964,                                      !- N408
    2.1, 0.004, 0.7607, 0.9664,                                      !- N412
    2.15, 0.006, 0.7604, 0.9665,                                     !- N416
    2.2, 0.005, 0.7338, 0.9661,                                      !- N420
    2.25, 0.005, 0.7347, 0.9634,                                     !- N424
    2.3, 0.005, 0.7449, 0.9734,                                      !- N428
    2.35, 0.01, 0.7516, 0.9639,                                      !- N432
    2.4, 0.001, 0.754, 0.9735,                                       !- N436
    2.45, 0.005, 0.7222, 0.953,                                      !- N440
    2.5, 0.018, 0.7185, 0.9648;                                      !- N444

MaterialProperty:GlazingSpectralData,
    Clear3PPGSP,                                                     !- Name
    0.3, 0.008, 0.0511, 0.0571,                                      !- Back Reflectance 1
    0.305, 0.008, 0.0506, 0.0564,                                    !- Back Reflectance 2
    0.31, 0.018, 0.0505, 0.0559,                                     !- Back Reflectance 3
    0.315, 0.053, 0.0504, 0.0555,                                    !- Back Reflectance 4
    0.32, 0.137, 0.051, 0.0561,                                      !- Back Reflectance 5
    0.325, 0.263, 0.0536, 0.0583,                                    !- N24
    0.33, 0.409, 0.0586, 0.0629,                                     !- N28
    0.335, 0.545, 0.0657, 0.0691,                                    !- N32
    0.34, 0.655, 0.0729, 0.0758,                                     !- N36
    0.345, 0.737, 0.0792, 0.0813,                                    !- N40
    0.35, 0.793, 0.0838, 0.0855,                                     !- N44
    0.355, 0.832, 0.0872, 0.0885,                                    !- N48
    0.36, 0.855, 0.089, 0.09,                                        !- N52
    0.365, 0.868, 0.0907, 0.0909,                                    !- N56
    0.37, 0.872, 0.0904, 0.0912,                                     !- N60
    0.375, 0.863, 0.0891, 0.0899,                                    !- N64
    0.38, 0.86, 0.0889, 0.0892,                                      !- N68
    0.385, 0.871, 0.0897, 0.0903,                                    !- N72
    0.39, 0.882, 0.0907, 0.091,                                      !- N76
    0.395, 0.889, 0.091, 0.0913,                                     !- N80
    0.4, 0.892, 0.0909, 0.0914,                                      !- N84
    0.41, 0.892, 0.0903, 0.0907,                                     !- N88
    0.42, 0.891, 0.09, 0.0903,                                       !- N92
    0.43, 0.892, 0.0894, 0.0898,                                     !- N96
    0.44, 0.893, 0.0891, 0.0895,                                     !- N100
    0.45, 0.896, 0.0892, 0.0892,                                     !- N104
    0.46, 0.9, 0.0887, 0.0889,                                       !- N108
    0.47, 0.902, 0.0885, 0.0886,                                     !- N112
    0.48, 0.903, 0.0885, 0.0886,                                     !- N116
    0.49, 0.904, 0.0881, 0.0882,                                     !- N120
    0.5, 0.904, 0.0877, 0.0879,                                      !- N124
    0.51, 0.905, 0.0873, 0.0876,                                     !- N128
    0.52, 0.905, 0.0871, 0.0873,                                     !- N132
    0.53, 0.905, 0.087, 0.087,                                       !- N136
    0.54, 0.904, 0.0868, 0.0869,                                     !- N140
    0.55, 0.903, 0.0863, 0.0865,                                     !- N144
    0.56, 0.901, 0.0861, 0.0862,                                     !- N148
    0.57, 0.899, 0.0856, 0.0858,                                     !- N152
    0.58, 0.897, 0.0851, 0.0854,                                     !- N156
    0.59, 0.895, 0.0847, 0.0849,                                     !- N160
    0.6, 0.891, 0.0843, 0.0846,                                      !- N164
    0.61, 0.888, 0.0838, 0.0841,                                     !- N168
    0.62, 0.885, 0.0833, 0.0834,                                     !- N172
    0.63, 0.881, 0.0827, 0.0831,                                     !- N176
    0.64, 0.877, 0.0822, 0.0826,                                     !- N180
    0.65, 0.873, 0.0816, 0.0822,                                     !- N184
    0.66, 0.869, 0.0811, 0.0816,                                     !- N188
    0.67, 0.864, 0.0807, 0.0812,                                     !- N192
    0.68, 0.859, 0.08, 0.0805,                                       !- N196
    0.69, 0.855, 0.0796, 0.08,                                       !- N200
    0.7, 0.849, 0.0788, 0.0796,                                      !- N204
    0.71, 0.844, 0.0783, 0.0788,                                     !- N208
    0.72, 0.839, 0.0779, 0.0784,                                     !- N212
    0.73, 0.834, 0.0771, 0.0778,                                     !- N216
    0.74, 0.829, 0.0766, 0.0775,                                     !- N220
    0.75, 0.824, 0.0761, 0.0768,                                     !- N224
    0.76, 0.818, 0.0756, 0.0762,                                     !- N228
    0.77, 0.813, 0.0752, 0.0759,                                     !- N232
    0.78, 0.808, 0.0746, 0.0754,                                     !- N236
    0.79, 0.804, 0.0741, 0.0751,                                     !- N240
    0.8, 0.799, 0.0735, 0.0744,                                      !- N244
    0.81, 0.795, 0.0733, 0.0742,                                     !- N248
    0.82, 0.791, 0.0727, 0.0737,                                     !- N252
    0.83, 0.786, 0.0722, 0.0735,                                     !- N256
    0.84, 0.783, 0.0717, 0.0721,                                     !- N260
    0.85, 0.777, 0.0705, 0.0722,                                     !- N264
    0.86, 0.776, 0.0721, 0.0725,                                     !- N268
    0.87, 0.772, 0.0716, 0.0724,                                     !- N272
    0.88, 0.769, 0.0706, 0.0713,                                     !- N276
    0.89, 0.766, 0.0703, 0.0711,                                     !- N280
    0.9, 0.764, 0.07, 0.0707,                                        !- N284
    0.91, 0.762, 0.0691, 0.0705,                                     !- N288
    0.92, 0.76, 0.0691, 0.0698,                                      !- N292
    0.93, 0.758, 0.0687, 0.0697,                                     !- N296
    0.94, 0.756, 0.0683, 0.0692,                                     !- N300
    0.95, 0.755, 0.068, 0.0689,                                      !- N304
    0.96, 0.753, 0.0677, 0.0686,                                     !- N308
    0.97, 0.752, 0.0669, 0.0676,                                     !- N312
    0.98, 0.751, 0.0657, 0.0666,                                     !- N316
    0.99, 0.75, 0.0652, 0.066,                                       !- N320
    1, 0.749, 0.0645, 0.0658,                                        !- N324
    1.05, 0.747, 0.0636, 0.0645,                                     !- N328
    1.1, 0.746, 0.0633, 0.0644,                                      !- N332
    1.15, 0.748, 0.0633, 0.0643,                                     !- N336
    1.2, 0.751, 0.0633, 0.0641,                                      !- N340
    1.25, 0.756, 0.0636, 0.0644,                                     !- N344
    1.3, 0.764, 0.0641, 0.0648,                                      !- N348
    1.35, 0.774, 0.0644, 0.0652,                                     !- N352
    1.4, 0.784, 0.0648, 0.0655,                                      !- N356
    1.45, 0.797, 0.0657, 0.0666,                                     !- N360
    1.5, 0.809, 0.0666, 0.0674,                                      !- N364
    1.55, 0.82, 0.0673, 0.0679,                                      !- N368
    1.6, 0.827, 0.068, 0.0687,                                       !- N372
    1.65, 0.832, 0.0685, 0.0692,                                     !- N376
    1.7, 0.834, 0.0687, 0.0692,                                      !- N380
    1.75, 0.834, 0.0687, 0.0694,                                     !- N384
    1.8, 0.832, 0.0687, 0.0691,                                      !- N388
    1.85, 0.83, 0.0691, 0.0696,                                      !- N392
    1.9, 0.829, 0.0678, 0.0683,                                      !- N396
    1.95, 0.829, 0.069, 0.0694,                                      !- N400
    2, 0.828, 0.068, 0.0685,                                         !- N404
    2.05, 0.829, 0.0676, 0.0683,                                     !- N408
    2.1, 0.83, 0.0676, 0.0678,                                       !- N412
    2.15, 0.827, 0.0688, 0.0687,                                     !- N416
    2.2, 0.812, 0.0719, 0.0721,                                      !- N420
    2.25, 0.814, 0.0716, 0.0714,                                     !- N424
    2.3, 0.82, 0.0724, 0.0725,                                       !- N428
    2.35, 0.818, 0.0719, 0.0734,                                     !- N432
    2.4, 0.82, 0.0705, 0.0715,                                       !- N436
    2.45, 0.811, 0.071, 0.0712,                                      !- N440
    2.5, 0.804, 0.0682, 0.0692;                                      !- N444

WindowMaterial:Glazing,
    WO18RT25,                !- Name
    Spectral,                !- Optical Data Type
    WO18RT25SP,              !- Window Glass Spectral Data Set Name
    0.0075,                  !- Thickness {m}
    ,                        !- Solar Transmittance at Normal Incidence
    ,                        !- Front Side Solar Reflectance at Normal Incidence
    ,                        !- Back Side Solar Reflectance at Normal Incidence
    ,                        !- Visible Transmittance at Normal Incidence
    ,                        !- Front Side Visible Reflectance at Normal Incidence
    ,                        !- Back Side Visible Reflectance at Normal Incidence
    0,                       !- Infrared Transmittance at Normal Incidence
    0.84,                    !- Front Side Infrared Hemispherical Emissivity
    0.84,                    !- Back Side Infrared Hemispherical Emissivity
    0.6,                     !- Conductivity {W/m-K}
    1.0,                     !- Dirt Correction Factor for Solar and Visible Transmittance
    No;                      !- Solar Diffusing

WindowMaterial:Glazing,
    WO18RT27,                !- Name
    Spectral,                !- Optical Data Type
    WO18RT27SP,              !- Window Glass Spectral Data Set Name
    0.0075,                  !- Thickness {m}
    ,                        !- Solar Transmittance at Normal Incidence
    ,                        !- Front Side Solar Reflectance at Normal Incidence
    ,                        !- Back Side Solar Reflectance at Normal Incidence
    ,                        !- Visible Transmittance at Normal Incidence
    ,                        !- Front Side Visible Reflectance at Normal Incidence
    ,                        !- Back Side Visible Reflectance at Normal Incidence
    0,                       !- Infrared Transmittance at Normal Incidence
    0.84,                    !- Front Side Infrared Hemispherical Emissivity
    0.84,                    !- Back Side Infrared Hemispherical Emissivity
    0.6,                     !- Conductivity {W/m-K}
    1.0,                     !- Dirt Correction Factor for Solar and Visible Transmittance
    No;                      !- Solar Diffusing

WindowMaterial:Glazing,
    WO18RT29,                !- Name
    Spectral,                !- Optical Data Type
    WO18RT29SP,              !- Window Glass Spectral Data Set Name
    0.0075,                  !- Thickness {m}
    ,                        !- Solar Transmittance at Normal Incidence
    ,                        !- Front Side Solar Reflectance at Normal Incidence
    ,                        !- Back Side Solar Reflectance at Normal Incidence
    ,                        !- Visible Transmittance at Normal Incidence
    ,                        !- Front Side Visible Reflectance at Normal Incidence
    ,                        !- Back Side Visible Reflectance at Normal Incidence
    0,                       !- Infrared Transmittance at Normal Incidence
    0.84,                    !- Front Side Infrared Hemispherical Emissivity
    0.84,                    !- Back Side Infrared Hemispherical Emissivity
    0.6,                     !- Conductivity {W/m-K}
    1.0,                     !- Dirt Correction Factor for Solar and Visible Transmittance
    No;                      !- Solar Diffusing

WindowMaterial:Glazing,
    WO18RT31,                !- Name
    Spectral,                !- Optical Data Type
    WO18RT31SP,              !- Window Glass Spectral Data Set Name
    0.0075,                  !- Thickness {m}
    ,                        !- Solar Transmittance at Normal Incidence
    ,                        !- Front Side Solar Reflectance at Normal Incidence
    ,                        !- Back Side Solar Reflectance at Normal Incidence
    ,                        !- Visible Transmittance at Normal Incidence
    ,                        !- Front Side Visible Reflectance at Normal Incidence
    ,                        !- Back Side Visible Reflectance at Normal Incidence
    0,                       !- Infrared Transmittance at Normal Incidence
    0.84,                    !- Front Side Infrared Hemispherical Emissivity
    0.84,                    !- Back Side Infrared Hemispherical Emissivity
    0.6,                     !- Conductivity {W/m-K}
    1.0,                     !- Dirt Correction Factor for Solar and Visible Transmittance
    No;                      !- Solar Diffusing

WindowMaterial:Glazing,
    WO18RT33,                !- Name
    Spectral,                !- Optical Data Type
    WO18RT33SP,              !- Window Glass Spectral Data Set Name
    0.0075,                  !- Thickness {m}
    ,                        !- Solar Transmittance at Normal Incidence
    ,                        !- Front Side Solar Reflectance at Normal Incidence
    ,                        !- Back Side Solar Reflectance at Normal Incidence
    ,                        !- Visible Transmittance at Normal Incidence
    ,                        !- Front Side Visible Reflectance at Normal Incidence
    ,                        !- Back Side Visible Reflectance at Normal Incidence
    0,                       !- Infrared Transmittance at Normal Incidence
    0.84,                    !- Front Side Infrared Hemispherical Emissivity
    0.84,                    !- Back Side Infrared Hemispherical Emissivity
    0.6,                     !- Conductivity {W/m-K}
    1.0,                     !- Dirt Correction Factor for Solar and Visible Transmittance
    No;                      !- Solar Diffusing

WindowMaterial:Glazing,
    WO18RT35,                !- Name
    Spectral,                !- Optical Data Type
    WO18RT35SP,              !- Window Glass Spectral Data Set Name
    0.0075,                  !- Thickness {m}
    ,                        !- Solar Transmittance at Normal Incidence
    ,                        !- Front Side Solar Reflectance at Normal Incidence
    ,                        !- Back Side Solar Reflectance at Normal Incidence
    ,                        !- Visible Transmittance at Normal Incidence
    ,                        !- Front Side Visible Reflectance at Normal Incidence
    ,                        !- Back Side Visible Reflectance at Normal Incidence
    0,                       !- Infrared Transmittance at Normal Incidence
    0.84,                    !- Front Side Infrared Hemispherical Emissivity
    0.84,                    !- Back Side Infrared Hemispherical Emissivity
    0.6,                     !- Conductivity {W/m-K}
    1.0,                     !- Dirt Correction Factor for Solar and Visible Transmittance
    No;                      !- Solar Diffusing

WindowMaterial:Glazing,
    WO18RT37,                !- Name
    Spectral,                !- Optical Data Type
    WO18RT37SP,              !- Window Glass Spectral Data Set Name
    0.0075,                  !- Thickness {m}
    ,                        !- Solar Transmittance at Normal Incidence